!- Darwin Line endings 

Version,
    9.4;                      !- Version Identifier

SimulationControl,
    No,                       !- Do Zone Sizing Calculation
    No,                       !- Do System Sizing Calculation
    No,                       !- Do Plant Sizing Calculation
    No,                       !- Run Simulation for Sizing Periods
    Yes,                      !- Run Simulation for Weather File Run Periods
    No,                       !- Do HVAC Sizing Simulation for Sizing Periods
    1;                        !- Maximum Number of HVAC Sizing Simulation Passes

Building,
    -MidriseApartment-ASHRAE 169-2006-2A created: 2021-01-06 05:06:10 +0000,    !- Name
    ,                         !- North Axis
    City,                     !- Terrain
    ,                         !- Loads Convergence Tolerance Value
    ,                         !- Temperature Convergence Tolerance Value
    ,                         !- Solar Distribution
    ,                         !- Maximum Number of Warmup Days
    ;                         !- Minimum Number of Warmup Days

ShadowCalculation,
    PolygonClipping,          !- Shading Calculation Method
    Periodic,                 !- Shading Calculation Update Frequency Method
    20,                       !- Shading Calculation Update Frequency
    15000,                    !- Maximum Figures in Shadow Overlap Calculations
    SutherlandHodgman,        !- Polygon Clipping Algorithm
    512,                      !- Pixel Counting Resolution
    SimpleSkyDiffuseModeling,    !- Sky Diffuse Modeling Algorithm
    No,                       !- Output External Shading Calculation Results
    No,                       !- Disable SelfShading Within Shading Zone Groups
    No;                       !- Disable SelfShading From Shading Zone Groups to Other Zones

SurfaceConvectionAlgorithm:Inside,
    TARP;                     !- Algorithm

SurfaceConvectionAlgorithm:Outside,
    DOE-2;                    !- Algorithm

HeatBalanceAlgorithm,
    ConductionTransferFunction,    !- Algorithm
    200;                      !- Surface Temperature Upper Limit

Timestep,
    1;                        !- Number of Timesteps per Hour

Site:Location,
    Camp Mabry_TX_USA Design_Conditions,    !- Name
    30.32,                    !- Latitude
    -97.77,                   !- Longitude
    -6,                       !- Time Zone
    198;                      !- Elevation

SizingPeriod:DesignDay,
    Camp Mabry Ann Htg 99.6% Condns DB,    !- Name
    1,                        !- Month
    21,                       !- Day of Month
    WinterDesignDay,          !- Day Type
    -3,                       !- Maximum DryBulb Temperature
    0,                        !- Daily DryBulb Temperature Range
    DefaultMultipliers,       !- DryBulb Temperature Range Modifier Type
    ,                         !- DryBulb Temperature Range Modifier Day Schedule Name
    Wetbulb,                  !- Humidity Condition Type
    -3,                       !- Wetbulb or DewPoint at Maximum DryBulb
    ,                         !- Humidity Condition Day Schedule Name
    ,                         !- Humidity Ratio at Maximum DryBulb
    ,                         !- Enthalpy at Maximum DryBulb
    ,                         !- Daily WetBulb Temperature Range
    98969,                    !- Barometric Pressure
    4.5,                      !- Wind Speed
    10,                       !- Wind Direction
    No,                       !- Rain Indicator
    No,                       !- Snow Indicator
    No,                       !- Daylight Saving Time Indicator
    ASHRAEClearSky,           !- Solar Model Indicator
    ,                         !- Beam Solar Day Schedule Name
    ,                         !- Diffuse Solar Day Schedule Name
    ,                         !- ASHRAE Clear Sky Optical Depth for Beam Irradiance taub
    ,                         !- ASHRAE Clear Sky Optical Depth for Diffuse Irradiance taud
    0;                        !- Sky Clearness

SizingPeriod:DesignDay,
    Camp Mabry Ann Clg .4% Condns DB=>MWB,    !- Name
    8,                        !- Month
    21,                       !- Day of Month
    SummerDesignDay,          !- Day Type
    37.4,                     !- Maximum DryBulb Temperature
    11.7,                     !- Daily DryBulb Temperature Range
    DefaultMultipliers,       !- DryBulb Temperature Range Modifier Type
    ,                         !- DryBulb Temperature Range Modifier Day Schedule Name
    Wetbulb,                  !- Humidity Condition Type
    23.6,                     !- Wetbulb or DewPoint at Maximum DryBulb
    ,                         !- Humidity Condition Day Schedule Name
    ,                         !- Humidity Ratio at Maximum DryBulb
    ,                         !- Enthalpy at Maximum DryBulb
    ,                         !- Daily WetBulb Temperature Range
    98969,                    !- Barometric Pressure
    3.7,                      !- Wind Speed
    160,                      !- Wind Direction
    No,                       !- Rain Indicator
    No,                       !- Snow Indicator
    No,                       !- Daylight Saving Time Indicator
    ASHRAETau,                !- Solar Model Indicator
    ,                         !- Beam Solar Day Schedule Name
    ,                         !- Diffuse Solar Day Schedule Name
    0.452,                    !- ASHRAE Clear Sky Optical Depth for Beam Irradiance taub
    2.127;                    !- ASHRAE Clear Sky Optical Depth for Diffuse Irradiance taud

RunPeriod,
    Run Period 1,             !- Name
    1,                        !- Begin Month
    1,                        !- Begin Day of Month
    2006,                     !- Begin Year
    12,                       !- End Month
    31,                       !- End Day of Month
    2006,                     !- End Year
    Sunday,                   !- Day of Week for Start Day
    No,                       !- Use Weather File Holidays and Special Days
    No,                       !- Use Weather File Daylight Saving Period
    No,                       !- Apply Weekend Holiday Rule
    Yes,                      !- Use Weather File Rain Indicators
    Yes;                      !- Use Weather File Snow Indicators

RunPeriodControl:DaylightSavingTime,
    2nd Sunday in March,      !- Start Date
    1st Sunday in November;    !- End Date

Site:GroundTemperature:FCfactorMethod,
    20.3,                     !- January Ground Temperature
    17.1,                     !- February Ground Temperature
    12.5,                     !- March Ground Temperature
    10.5,                     !- April Ground Temperature
    12.8,                     !- May Ground Temperature
    16.2,                     !- June Ground Temperature
    20.5,                     !- July Ground Temperature
    24,                       !- August Ground Temperature
    27,                       !- September Ground Temperature
    28.3,                     !- October Ground Temperature
    28.2,                     !- November Ground Temperature
    26.4;                     !- December Ground Temperature

Site:WaterMainsTemperature,
    Correlation,              !- Calculation Method
    ,                         !- Temperature Schedule Name
    20.3166666666667,         !- Annual Average Outdoor Air Temperature
    17.8;                     !- Maximum Difference In Monthly Average Outdoor Air Temperatures

ScheduleTypeLimits,
    Space 0 ZN Thermostat Schedule Type Limits,    !- Name
    0,                        !- Lower Limit Value
    4,                        !- Upper Limit Value
    DISCRETE;                 !- Numeric Type

ScheduleTypeLimits,
    Temperature,              !- Name
    ,                         !- Lower Limit Value
    ,                         !- Upper Limit Value
    Continuous,               !- Numeric Type
    temperature;              !- Unit Type

ScheduleTypeLimits,
    ActivityLevel,            !- Name
    0,                        !- Lower Limit Value
    ,                         !- Upper Limit Value
    Continuous,               !- Numeric Type
    activitylevel;            !- Unit Type

ScheduleTypeLimits,
    Any Number;               !- Name

ScheduleTypeLimits,
    Fractional,               !- Name
    0,                        !- Lower Limit Value
    1,                        !- Upper Limit Value
    Continuous;               !- Numeric Type

ScheduleTypeLimits,
    OnOff,                    !- Name
    0,                        !- Lower Limit Value
    1,                        !- Upper Limit Value
    Discrete,                 !- Numeric Type
    availability;             !- Unit Type

ScheduleTypeLimits,
    Velocity,                 !- Name
    0,                        !- Lower Limit Value
    ,                         !- Upper Limit Value
    Continuous,               !- Numeric Type
    velocity;                 !- Unit Type

Schedule:Day:Interval,
    MidriseApartment Apartment HtgSetp Default,    !- Name
    Temperature,              !- Schedule Type Limits Name
    No,                       !- Interpolate to Timestep
    24:00,                    !- Time 1
    21.1;                     !- Value Until Time 1

Schedule:Day:Interval,
    MidriseApartment Apartment HtgSetp Summer Design Day,    !- Name
    Temperature,              !- Schedule Type Limits Name
    No,                       !- Interpolate to Timestep
    24:00,                    !- Time 1
    21.1;                     !- Value Until Time 1

Schedule:Day:Interval,
    MidriseApartment Apartment HtgSetp Winter Design Day,    !- Name
    Temperature,              !- Schedule Type Limits Name
    No,                       !- Interpolate to Timestep
    24:00,                    !- Time 1
    21.1;                     !- Value Until Time 1

Schedule:Day:Interval,
    MidriseApartment Apartment ClgSetp Default,    !- Name
    Temperature,              !- Schedule Type Limits Name
    No,                       !- Interpolate to Timestep
    24:00,                    !- Time 1
    23.9;                     !- Value Until Time 1

Schedule:Day:Interval,
    MidriseApartment Apartment ClgSetp Summer Design Day,    !- Name
    Temperature,              !- Schedule Type Limits Name
    No,                       !- Interpolate to Timestep
    24:00,                    !- Time 1
    23.9;                     !- Value Until Time 1

Schedule:Day:Interval,
    MidriseApartment Apartment ClgSetp Winter Design Day,    !- Name
    Temperature,              !- Schedule Type Limits Name
    No,                       !- Interpolate to Timestep
    24:00,                    !- Time 1
    23.9;                     !- Value Until Time 1

Schedule:Day:Interval,
    Air Velocity Schedule Default,    !- Name
    Velocity,                 !- Schedule Type Limits Name
    No,                       !- Interpolate to Timestep
    24:00,                    !- Time 1
    0.2;                      !- Value Until Time 1

Schedule:Day:Interval,
    ApartmentMidRise All On Default,    !- Name
    ,                         !- Schedule Type Limits Name
    No,                       !- Interpolate to Timestep
    24:00,                    !- Time 1
    1;                        !- Value Until Time 1

Schedule:Day:Interval,
    ApartmentMidRise All On Summer Design Day,    !- Name
    ,                         !- Schedule Type Limits Name
    No,                       !- Interpolate to Timestep
    24:00,                    !- Time 1
    1;                        !- Value Until Time 1

Schedule:Day:Interval,
    ApartmentMidRise All On Winter Design Day,    !- Name
    ,                         !- Schedule Type Limits Name
    No,                       !- Interpolate to Timestep
    24:00,                    !- Time 1
    1;                        !- Value Until Time 1

Schedule:Day:Interval,
    ApartmentMidRise COMPACT HVAC-ALWAYS 1 Default,    !- Name
    Fractional,               !- Schedule Type Limits Name
    No,                       !- Interpolate to Timestep
    24:00,                    !- Time 1
    1;                        !- Value Until Time 1

Schedule:Day:Interval,
    ApartmentMidRise COMPACT HVAC-ALWAYS 1 Summer Design Day,    !- Name
    Fractional,               !- Schedule Type Limits Name
    No,                       !- Interpolate to Timestep
    24:00,                    !- Time 1
    1;                        !- Value Until Time 1

Schedule:Day:Interval,
    ApartmentMidRise COMPACT HVAC-ALWAYS 1 Winter Design Day,    !- Name
    Fractional,               !- Schedule Type Limits Name
    No,                       !- Interpolate to Timestep
    24:00,                    !- Time 1
    1;                        !- Value Until Time 1

Schedule:Day:Interval,
    ApartmentMidRise EQP_APT_SCH Default,    !- Name
    Fractional,               !- Schedule Type Limits Name
    No,                       !- Interpolate to Timestep
    01:00,                    !- Time 1
    0.45,                     !- Value Until Time 1
    02:00,                    !- Time 2
    0.41,                     !- Value Until Time 2
    03:00,                    !- Time 3
    0.39,                     !- Value Until Time 3
    05:00,                    !- Time 4
    0.38,                     !- Value Until Time 4
    06:00,                    !- Time 5
    0.43,                     !- Value Until Time 5
    07:00,                    !- Time 6
    0.54,                     !- Value Until Time 6
    08:00,                    !- Time 7
    0.65,                     !- Value Until Time 7
    09:00,                    !- Time 8
    0.66,                     !- Value Until Time 8
    10:00,                    !- Time 9
    0.67,                     !- Value Until Time 9
    11:00,                    !- Time 10
    0.69,                     !- Value Until Time 10
    12:00,                    !- Time 11
    0.7,                      !- Value Until Time 11
    13:00,                    !- Time 12
    0.69,                     !- Value Until Time 12
    14:00,                    !- Time 13
    0.66,                     !- Value Until Time 13
    15:00,                    !- Time 14
    0.65,                     !- Value Until Time 14
    16:00,                    !- Time 15
    0.68,                     !- Value Until Time 15
    17:00,                    !- Time 16
    0.8,                      !- Value Until Time 16
    19:00,                    !- Time 17
    1,                        !- Value Until Time 17
    20:00,                    !- Time 18
    0.93,                     !- Value Until Time 18
    21:00,                    !- Time 19
    0.89,                     !- Value Until Time 19
    22:00,                    !- Time 20
    0.85,                     !- Value Until Time 20
    23:00,                    !- Time 21
    0.71,                     !- Value Until Time 21
    24:00,                    !- Time 22
    0.58;                     !- Value Until Time 22

Schedule:Day:Interval,
    ApartmentMidRise EQP_APT_SCH Summer Design Day,    !- Name
    Fractional,               !- Schedule Type Limits Name
    No,                       !- Interpolate to Timestep
    01:00,                    !- Time 1
    0.45,                     !- Value Until Time 1
    02:00,                    !- Time 2
    0.41,                     !- Value Until Time 2
    03:00,                    !- Time 3
    0.39,                     !- Value Until Time 3
    05:00,                    !- Time 4
    0.38,                     !- Value Until Time 4
    06:00,                    !- Time 5
    0.43,                     !- Value Until Time 5
    07:00,                    !- Time 6
    0.54,                     !- Value Until Time 6
    08:00,                    !- Time 7
    0.65,                     !- Value Until Time 7
    09:00,                    !- Time 8
    0.66,                     !- Value Until Time 8
    10:00,                    !- Time 9
    0.67,                     !- Value Until Time 9
    11:00,                    !- Time 10
    0.69,                     !- Value Until Time 10
    12:00,                    !- Time 11
    0.7,                      !- Value Until Time 11
    13:00,                    !- Time 12
    0.69,                     !- Value Until Time 12
    14:00,                    !- Time 13
    0.66,                     !- Value Until Time 13
    15:00,                    !- Time 14
    0.65,                     !- Value Until Time 14
    16:00,                    !- Time 15
    0.68,                     !- Value Until Time 15
    17:00,                    !- Time 16
    0.8,                      !- Value Until Time 16
    19:00,                    !- Time 17
    1,                        !- Value Until Time 17
    20:00,                    !- Time 18
    0.93,                     !- Value Until Time 18
    21:00,                    !- Time 19
    0.89,                     !- Value Until Time 19
    22:00,                    !- Time 20
    0.85,                     !- Value Until Time 20
    23:00,                    !- Time 21
    0.71,                     !- Value Until Time 21
    24:00,                    !- Time 22
    0.58;                     !- Value Until Time 22

Schedule:Day:Interval,
    ApartmentMidRise EQP_APT_SCH Winter Design Day,    !- Name
    Fractional,               !- Schedule Type Limits Name
    No,                       !- Interpolate to Timestep
    01:00,                    !- Time 1
    0.45,                     !- Value Until Time 1
    02:00,                    !- Time 2
    0.41,                     !- Value Until Time 2
    03:00,                    !- Time 3
    0.39,                     !- Value Until Time 3
    05:00,                    !- Time 4
    0.38,                     !- Value Until Time 4
    06:00,                    !- Time 5
    0.43,                     !- Value Until Time 5
    07:00,                    !- Time 6
    0.54,                     !- Value Until Time 6
    08:00,                    !- Time 7
    0.65,                     !- Value Until Time 7
    09:00,                    !- Time 8
    0.66,                     !- Value Until Time 8
    10:00,                    !- Time 9
    0.67,                     !- Value Until Time 9
    11:00,                    !- Time 10
    0.69,                     !- Value Until Time 10
    12:00,                    !- Time 11
    0.7,                      !- Value Until Time 11
    13:00,                    !- Time 12
    0.69,                     !- Value Until Time 12
    14:00,                    !- Time 13
    0.66,                     !- Value Until Time 13
    15:00,                    !- Time 14
    0.65,                     !- Value Until Time 14
    16:00,                    !- Time 15
    0.68,                     !- Value Until Time 15
    17:00,                    !- Time 16
    0.8,                      !- Value Until Time 16
    19:00,                    !- Time 17
    1,                        !- Value Until Time 17
    20:00,                    !- Time 18
    0.93,                     !- Value Until Time 18
    21:00,                    !- Time 19
    0.89,                     !- Value Until Time 19
    22:00,                    !- Time 20
    0.85,                     !- Value Until Time 20
    23:00,                    !- Time 21
    0.71,                     !- Value Until Time 21
    24:00,                    !- Time 22
    0.58;                     !- Value Until Time 22

Schedule:Day:Interval,
    ApartmentMidRise Exterior_Lgt_ALWAYS_ON Default,    !- Name
    Fractional,               !- Schedule Type Limits Name
    No,                       !- Interpolate to Timestep
    24:00,                    !- Time 1
    1;                        !- Value Until Time 1

Schedule:Day:Interval,
    ApartmentMidRise Exterior_Lgt_ALWAYS_ON Summer Design Day,    !- Name
    Fractional,               !- Schedule Type Limits Name
    No,                       !- Interpolate to Timestep
    24:00,                    !- Time 1
    1;                        !- Value Until Time 1

Schedule:Day:Interval,
    ApartmentMidRise Exterior_Lgt_ALWAYS_ON Winter Design Day,    !- Name
    Fractional,               !- Schedule Type Limits Name
    No,                       !- Interpolate to Timestep
    24:00,                    !- Time 1
    1;                        !- Value Until Time 1

Schedule:Day:Interval,
    Clothing Schedule Default Winter Clothes,    !- Name
    Any Number,               !- Schedule Type Limits Name
    No,                       !- Interpolate to Timestep
    24:00,                    !- Time 1
    1;                        !- Value Until Time 1

Schedule:Day:Interval,
    Clothing Schedule Summer Clothes,    !- Name
    Any Number,               !- Schedule Type Limits Name
    No,                       !- Interpolate to Timestep
    24:00,                    !- Time 1
    0.5;                      !- Value Until Time 1

Schedule:Day:Interval,
    Economizer Max OA Fraction 70 pct Default,    !- Name
    ,                         !- Schedule Type Limits Name
    No,                       !- Interpolate to Timestep
    24:00,                    !- Time 1
    0.7;                      !- Value Until Time 1

Schedule:Day:Interval,
    MidriseApartment Activity Default,    !- Name
    ActivityLevel,            !- Schedule Type Limits Name
    No,                       !- Interpolate to Timestep
    24:00,                    !- Time 1
    120;                      !- Value Until Time 1

Schedule:Day:Interval,
    MidriseApartment Activity Summer Design Day,    !- Name
    ActivityLevel,            !- Schedule Type Limits Name
    No,                       !- Interpolate to Timestep
    24:00,                    !- Time 1
    120;                      !- Value Until Time 1

Schedule:Day:Interval,
    MidriseApartment Activity Winter Design Day,    !- Name
    ActivityLevel,            !- Schedule Type Limits Name
    No,                       !- Interpolate to Timestep
    24:00,                    !- Time 1
    120;                      !- Value Until Time 1

Schedule:Day:Interval,
    MidriseApartment Apartment Light Default,    !- Name
    Fractional,               !- Schedule Type Limits Name
    No,                       !- Interpolate to Timestep
    04:00,                    !- Time 1
    0.067,                    !- Value Until Time 1
    05:00,                    !- Time 2
    0.187,                    !- Value Until Time 2
    06:00,                    !- Time 3
    0.394,                    !- Value Until Time 3
    07:00,                    !- Time 4
    0.44,                     !- Value Until Time 4
    08:00,                    !- Time 5
    0.393,                    !- Value Until Time 5
    09:00,                    !- Time 6
    0.172,                    !- Value Until Time 6
    15:00,                    !- Time 7
    0.119,                    !- Value Until Time 7
    16:00,                    !- Time 8
    0.206,                    !- Value Until Time 8
    17:00,                    !- Time 9
    0.439,                    !- Value Until Time 9
    18:00,                    !- Time 10
    0.616,                    !- Value Until Time 10
    19:00,                    !- Time 11
    0.829,                    !- Value Until Time 11
    20:00,                    !- Time 12
    0.986,                    !- Value Until Time 12
    21:00,                    !- Time 13
    1,                        !- Value Until Time 13
    22:00,                    !- Time 14
    0.692,                    !- Value Until Time 14
    23:00,                    !- Time 15
    0.384,                    !- Value Until Time 15
    24:00,                    !- Time 16
    0.16;                     !- Value Until Time 16

Schedule:Day:Interval,
    MidriseApartment Apartment Light Summer Design Day,    !- Name
    Fractional,               !- Schedule Type Limits Name
    No,                       !- Interpolate to Timestep
    04:00,                    !- Time 1
    0.067,                    !- Value Until Time 1
    05:00,                    !- Time 2
    0.187,                    !- Value Until Time 2
    06:00,                    !- Time 3
    0.394,                    !- Value Until Time 3
    07:00,                    !- Time 4
    0.44,                     !- Value Until Time 4
    08:00,                    !- Time 5
    0.393,                    !- Value Until Time 5
    09:00,                    !- Time 6
    0.172,                    !- Value Until Time 6
    15:00,                    !- Time 7
    0.119,                    !- Value Until Time 7
    16:00,                    !- Time 8
    0.206,                    !- Value Until Time 8
    17:00,                    !- Time 9
    0.439,                    !- Value Until Time 9
    18:00,                    !- Time 10
    0.616,                    !- Value Until Time 10
    19:00,                    !- Time 11
    0.829,                    !- Value Until Time 11
    20:00,                    !- Time 12
    0.986,                    !- Value Until Time 12
    21:00,                    !- Time 13
    1,                        !- Value Until Time 13
    22:00,                    !- Time 14
    0.692,                    !- Value Until Time 14
    23:00,                    !- Time 15
    0.384,                    !- Value Until Time 15
    24:00,                    !- Time 16
    0.16;                     !- Value Until Time 16

Schedule:Day:Interval,
    MidriseApartment Apartment Light Winter Design Day,    !- Name
    Fractional,               !- Schedule Type Limits Name
    No,                       !- Interpolate to Timestep
    04:00,                    !- Time 1
    0.067,                    !- Value Until Time 1
    05:00,                    !- Time 2
    0.187,                    !- Value Until Time 2
    06:00,                    !- Time 3
    0.394,                    !- Value Until Time 3
    07:00,                    !- Time 4
    0.44,                     !- Value Until Time 4
    08:00,                    !- Time 5
    0.393,                    !- Value Until Time 5
    09:00,                    !- Time 6
    0.172,                    !- Value Until Time 6
    15:00,                    !- Time 7
    0.119,                    !- Value Until Time 7
    16:00,                    !- Time 8
    0.206,                    !- Value Until Time 8
    17:00,                    !- Time 9
    0.439,                    !- Value Until Time 9
    18:00,                    !- Time 10
    0.616,                    !- Value Until Time 10
    19:00,                    !- Time 11
    0.829,                    !- Value Until Time 11
    20:00,                    !- Time 12
    0.986,                    !- Value Until Time 12
    21:00,                    !- Time 13
    1,                        !- Value Until Time 13
    22:00,                    !- Time 14
    0.692,                    !- Value Until Time 14
    23:00,                    !- Time 15
    0.384,                    !- Value Until Time 15
    24:00,                    !- Time 16
    0.16;                     !- Value Until Time 16

Schedule:Day:Interval,
    MidriseApartment Apartment Occ Default,    !- Name
    Fractional,               !- Schedule Type Limits Name
    No,                       !- Interpolate to Timestep
    07:00,                    !- Time 1
    1,                        !- Value Until Time 1
    08:00,                    !- Time 2
    0.85,                     !- Value Until Time 2
    09:00,                    !- Time 3
    0.39,                     !- Value Until Time 3
    16:00,                    !- Time 4
    0.25,                     !- Value Until Time 4
    17:00,                    !- Time 5
    0.3,                      !- Value Until Time 5
    18:00,                    !- Time 6
    0.52,                     !- Value Until Time 6
    21:00,                    !- Time 7
    0.87,                     !- Value Until Time 7
    24:00,                    !- Time 8
    1;                        !- Value Until Time 8

Schedule:Day:Interval,
    MidriseApartment Apartment Occ Summer Design Day,    !- Name
    Fractional,               !- Schedule Type Limits Name
    No,                       !- Interpolate to Timestep
    07:00,                    !- Time 1
    1,                        !- Value Until Time 1
    08:00,                    !- Time 2
    0.85,                     !- Value Until Time 2
    09:00,                    !- Time 3
    0.39,                     !- Value Until Time 3
    16:00,                    !- Time 4
    0.25,                     !- Value Until Time 4
    17:00,                    !- Time 5
    0.3,                      !- Value Until Time 5
    18:00,                    !- Time 6
    0.52,                     !- Value Until Time 6
    21:00,                    !- Time 7
    0.87,                     !- Value Until Time 7
    24:00,                    !- Time 8
    1;                        !- Value Until Time 8

Schedule:Day:Interval,
    MidriseApartment Apartment Occ Winter Design Day,    !- Name
    Fractional,               !- Schedule Type Limits Name
    No,                       !- Interpolate to Timestep
    07:00,                    !- Time 1
    1,                        !- Value Until Time 1
    08:00,                    !- Time 2
    0.85,                     !- Value Until Time 2
    09:00,                    !- Time 3
    0.39,                     !- Value Until Time 3
    16:00,                    !- Time 4
    0.25,                     !- Value Until Time 4
    17:00,                    !- Time 5
    0.3,                      !- Value Until Time 5
    18:00,                    !- Time 6
    0.52,                     !- Value Until Time 6
    21:00,                    !- Time 7
    0.87,                     !- Value Until Time 7